Version 4
SHEET 1 18116 7332
WIRE 15248 2416 15200 2416
WIRE 16528 2416 15312 2416
WIRE 17248 2416 16528 2416
WIRE 16944 2528 16912 2528
WIRE 15200 2576 15200 2416
WIRE 16352 2624 16288 2624
WIRE 16624 2624 16416 2624
WIRE 17072 2640 17008 2640
WIRE 17344 2640 17136 2640
WIRE 15648 2688 15632 2688
WIRE 16128 2688 16096 2688
WIRE 16224 2688 16192 2688
WIRE 16288 2720 16288 2624
WIRE 16352 2720 16288 2720
WIRE 16624 2720 16624 2624
WIRE 16624 2720 16432 2720
WIRE 17008 2736 17008 2640
WIRE 17072 2736 17008 2736
WIRE 17344 2736 17344 2640
WIRE 17344 2736 17152 2736
WIRE 15200 2752 15200 2656
WIRE 15312 2752 15200 2752
WIRE 16528 2784 16528 2416
WIRE 15632 2800 15632 2688
WIRE 15728 2800 15632 2800
WIRE 15904 2800 15808 2800
WIRE 16096 2800 16096 2688
WIRE 16096 2800 15968 2800
WIRE 16128 2800 16096 2800
WIRE 16224 2800 16224 2688
WIRE 16224 2800 16192 2800
WIRE 16288 2800 16288 2720
WIRE 16288 2800 16224 2800
WIRE 16496 2800 16288 2800
WIRE 17248 2800 17248 2416
WIRE 16624 2816 16624 2720
WIRE 16624 2816 16560 2816
WIRE 16656 2816 16624 2816
WIRE 16784 2816 16720 2816
WIRE 16912 2816 16912 2528
WIRE 16912 2816 16864 2816
WIRE 17008 2816 17008 2736
WIRE 17008 2816 16912 2816
WIRE 17216 2816 17008 2816
WIRE 15312 2832 15312 2752
WIRE 15904 2832 15904 2800
WIRE 15968 2832 15968 2800
WIRE 16496 2832 16464 2832
WIRE 17344 2832 17344 2736
WIRE 17344 2832 17280 2832
WIRE 17552 2832 17344 2832
WIRE 17664 2832 17616 2832
WIRE 17856 2832 17664 2832
WIRE 17936 2832 17856 2832
WIRE 17216 2848 17184 2848
WIRE 15632 2880 15632 2800
WIRE 16464 2912 16464 2832
WIRE 17184 2928 17184 2848
WIRE 15200 2944 15200 2752
WIRE 17664 2960 17664 2832
WIRE 17856 2976 17856 2832
WIRE 15968 2992 15968 2912
WIRE 17664 3104 17664 3040
WIRE 17856 3104 17856 3056
WIRE 15632 3120 15632 2960
WIRE 15904 3120 15904 2912
WIRE 15968 3120 15968 3072
WIRE 15200 3168 15200 3024
WIRE 15264 3168 15200 3168
WIRE 16528 3168 16528 2848
WIRE 16528 3168 15328 3168
WIRE 17248 3168 17248 2864
WIRE 17248 3168 16528 3168
FLAG 15312 2832 0
FLAG 16944 2528 stage1_out
IOPIN 16944 2528 Out
FLAG 16464 2912 0
FLAG 15968 3120 0
FLAG 15632 3120 0
FLAG 15904 3120 0
FLAG 17184 2928 0
FLAG 17936 2832 Stage2out
IOPIN 17936 2832 Out
FLAG 17664 3104 0
FLAG 17856 3104 0
FLAG 15648 2688 GenOut
IOPIN 15648 2688 Out
DATAFLAG 16288 2800 ""
DATAFLAG 16528 2416 ""
DATAFLAG 16528 3168 ""
SYMBOL OpAmps\\opamp2 16528 2752 R0
SYMATTR InstName U1
SYMATTR Value AD8397
SYMBOL voltage 15200 2560 R0
SYMATTR InstName V1
SYMATTR Value 9V
SYMBOL voltage 15200 2928 R0
SYMATTR InstName V2
SYMATTR Value 9V
SYMBOL res 16880 2800 R90
WINDOW 0 0 56 VBottom 2
WINDOW 3 32 56 VTop 2
SYMATTR InstName R1
SYMATTR Value 1k
SYMBOL cap 16416 2608 R90
WINDOW 0 0 32 VBottom 2
WINDOW 3 32 32 VTop 2
SYMATTR InstName C2
SYMATTR Value 1n
SYMBOL res 16448 2704 R90
WINDOW 0 0 56 VBottom 2
WINDOW 3 32 56 VTop 2
SYMATTR InstName R2
SYMATTR Value 6k8
SYMBOL cap 16192 2784 R90
WINDOW 0 0 32 VBottom 2
WINDOW 3 32 32 VTop 2
SYMATTR InstName C3
SYMATTR Value 8n2
SYMBOL ind2 15984 2928 R180
WINDOW 0 -33 74 Left 2
WINDOW 3 -50 30 Left 2
SYMATTR InstName L1
SYMATTR Value 10.35m
SYMATTR Type ind
SYMBOL res 15952 2976 R0
SYMATTR InstName R3
SYMATTR Value 4.7
SYMBOL cap 16720 2800 R90
WINDOW 0 0 32 VBottom 2
WINDOW 3 32 32 VTop 2
SYMATTR InstName C1
SYMATTR Value 100n
SYMBOL Misc\\signal 15632 2864 R0
WINDOW 123 24 132 Left 2
WINDOW 39 0 0 Left 0
SYMATTR Value2 AC 5m
SYMATTR InstName V3
SYMATTR Value SINE(0 1m 17.2K)
SYMBOL ind2 15888 2816 R0
WINDOW 0 -37 37 Left 2
WINDOW 3 -24 82 Left 2
SYMATTR InstName L2
SYMATTR Value 2.47m
SYMATTR Type ind
SYMBOL res 15824 2784 R90
WINDOW 0 0 56 VBottom 2
WINDOW 3 32 56 VTop 2
SYMATTR InstName R4
SYMATTR Value {r4val}
SYMBOL OpAmps\\opamp2 17248 2768 R0
SYMATTR InstName U2
SYMATTR Value AD8397
SYMBOL cap 17136 2624 R90
WINDOW 0 0 32 VBottom 2
WINDOW 3 32 32 VTop 2
SYMATTR InstName C4
SYMATTR Value 1n
SYMBOL res 17168 2720 R90
WINDOW 0 0 56 VBottom 2
WINDOW 3 32 56 VTop 2
SYMATTR InstName R5
SYMATTR Value 6k8
SYMBOL cap 17616 2816 R90
WINDOW 0 0 32 VBottom 2
WINDOW 3 32 32 VTop 2
SYMATTR InstName C5
SYMATTR Value 100n
SYMBOL res 17648 2944 R0
SYMATTR InstName R6
SYMATTR Value 1k
SYMBOL schottky 15248 2432 R270
WINDOW 0 32 32 VTop 2
WINDOW 3 0 32 VBottom 2
SYMATTR InstName D1
SYMATTR Value 1N5817
SYMATTR Description Diode
SYMATTR Type diode
SYMBOL schottky 15328 3152 R90
WINDOW 0 0 32 VBottom 2
WINDOW 3 32 32 VTop 2
SYMATTR InstName D2
SYMATTR Value 1N5817
SYMATTR Description Diode
SYMATTR Type diode
SYMBOL res 17840 2960 R0
SYMATTR InstName R7
SYMATTR Value 50
SYMBOL cap 16192 2672 R90
WINDOW 0 0 32 VBottom 2
WINDOW 3 32 32 VTop 2
SYMATTR InstName C6
SYMATTR Value 22n
TEXT 10024 2136 Left 2 !* AD8397 SPICE Macro-model        \n* Description: Amplifier\n* Generic Desc: Dual High Current OP Amplifier\n* Developed by:\n* Revision History: 08/10/2012 - Updated to new header style\n* \n* Copyright 2012 by Analog Devices, Inc.\n*\n* Refer to http://www.analog.com/Analog_Root/static/techSupport/designTools/spiceModels/license/spice_general.html for License Statement. Use of this model \n* indicates your acceptance of the terms and provisions in the License Statement.\n* \n* BEGIN Notes:\n*\n* Not Modeled:\n*    \n* Parameters modeled include: \n*\n* END Notes:\n*\n* Node assignments\n*                                +IN             -IN             Vcc             Vee             Out                             \n.subckt AD8397  1               2               99              50              4                               \n                                                                                                                \n***Differential Stage                                                                                                           \nQ1              13              12              14              npn                                             \nQ2              17              2               16              npn                                             \nRc1             98              13              Rideal          4.200E+00                                       \nRc2             98              17              Rideal          4.200E+00                                       \nRe1             14              15              Rideal          4.148E+00                                       \nRe2             15              16              Rideal          4.148E+00                                       \nIbias           15              51              1.00E+00                                                        \nDcmlim1         18              15              DQUIET                                                          \nVcmlim1         18              51              1.526                                                           \n                                                                                                                \n***Voltage Noise Generation                                                                                                     \nHVnoise         12              7               Vvnoise         1                                               \nVVnoise         501             0               0                                                               \nDVnoise         501             0               Dvnoise                                                         \nRVnoise         501             0               0.000817778                                                     \n                                                                                                                \n***Current Noise Generation on +IN                                                                                                              \nFInoise1        12              0               VInoise1        1                                               \nVInoise1        502             0               0                                                               \nDInoise1        502             0               DInoise1                                                        \nRInoise1        502             0               7360                                                            \n                                                                                                                \n***Current Noise Generation on -IN                                                                                                              \nFInoise2        2               0               VInoise2        1                                               \nVInoise2        503             0               0                                                               \nDInoise2        503             0               DInoise2                                                        \nRInoise2        503             0               7360                                                            \n \n***Common Mode Injection                                                                                        \nRcm1            1               601             Rideal          100Meg                          \nRcm2            2               601             Rideal          100Meg                          \nGcmr            0               602             601             75              1.00E-06        \nRcmr1           602             603             Rideal          1Meg                            \nRcmr2           603             604             Rideal          1.585E+01                       \nLcmr            604             0               2.522E-03                                       \nEcmr            10              9               603             0               1.000E+00       \n \n***Positive Power Supply Rejection                                                                                              \nEpsr1           700             0               98              0               1               \nRpsr1           700             701             Rideal          1.00E+02                        \nRpsr2           701             702             Rideal          5.012E-03                       \nLpsr1           702             0               7.977E-07                                       \nEpsr2           11              10              701             0               1               \n \n***Negative Power Supply Rejection                                                                              \nEpsr3           703             0               51              0               1\nRpsr3           703             704             Rideal          1.00E+02        \nRpsr4           704             705             Rideal          5.012E-03       \nLpsr2           705             0               7.977E-07                       \nEpsr4           12              11              704             0               1\n \n***Input Offset and Bias                                                                        \nVos             1               7               1.000E-03                       \nIos             1               2               2.500E-08                       \n \n***Input Impedance                                                                              \nCinv            2               0               1.40E-12                        \nCninv           1               0               1.40E-12                        \n \n***1st Gain and Slew limiting                                                                   \nGslew           0               101             17              13              1.0000E+00      \nRslew           101             0               Rideal          2.50E+02                        \nDslew1          101             102             DZENER                                          \nDslew2          0               102             DZENER                                          \n \n***Second Gain and Dominant Pole with Output Voltage Limiting                                                                                   \nGp1             51              201             101             0               1.801E-06       \nRp1             201             51              Rideal          8.842E+08                       \nCp1             201             51              1.50E-12                                        \nVlim1           97              206             0.65                                            \nDlim1           201             206             dquiet                                          \nVlim2           207             52              0.65                                            \nDlim2           207             201             dquiet                                          \nEsupref1        97              98              51              0               1               \nEsupref2        52              51              51              0               1               \n                                                                                                \n***Second Pole                                                                                  \nGp2             0               202             201             51              1.00E-03        \nRp2             202             0               Rideal          1.00E+03                        \nCp2             202             0               1.59155E-12                                     \n                                                                                                \n***Third Pole                                                                                   \nGp3             0               203             202             0               1.00E-03        \nRp3             203             0               Rideal          1.00E+03                        \nCp3             203             0               1.59155E-12                                     \n***Fourth Pole                                                                                  \nGp4             0               204             203             0               1.00E-03        \nRp4             204             0               Rideal          1.00E+03                        \nCp4             204             0               1.59155E-16                                     \n***Fifth Pole                                                                                   \nGp5             0               205             204             0               1.00E-03        \nRp5             205             0               Rideal          1.00E+03                        \nCp5             205             0               1.592E-16                                       \n                                                                                                \n***First Zero                                                                                   \nGz1             0               301             205             0               1.00E-03        \nRz1             301             302             Rideal          1.00E+03                        \nLz1             302             0               1.592E-10                                       \n***Second Zero                                                                                  \nGz2             0               303             301             0               1.00E-03        \nRz2             303             304             Rideal          1.00E+03                        \nLz2             304             0               1.592E-10                                       \n***Third Zero                                                                                   \nGz3             0               305             303             0               1.00E-03        \nRz3             305             306             Rideal          1.00E+03                        \nLz3             306             0               1.59E-10                                        \n                                                                                                \n***Buffer                                                                                       \nGbuf            0               401             305             0               1.00E-04                                                        \nRbuf            401             0               Rideal          1.00E+04                                                                        \n                                                                                                                                                \n***Output with current limiting                                                                                                                                 \nEout            404             0               401             0               1.000E+00                                                       \nRout            404             405             RIDEAL          1.000E+00                                                                       \nLout            405             406             1.00E-19                                                                                        \nCout            406             0               1.00E-22                                                                                        \nVoutmon         406             4               0                                                                                               \nDout1           401             407             Dquiet                                                                                          \nVout1           407             406             -3.200E-01                                                                                      \nDout2           408             401             Dquiet                                                                                          \nVout2           406             408             -3.200E-01                                                                                      \n \n***Voltage reference generator                                                                                                                                  \nEref1           98              0               99              0               1                                                               \nEref2           51              0               50              0               1                               \nRref1           98              901             Rideal          100Meg                                          \nRref2           901             51              Rideal          100Meg                                          \nEref3           75              0               901             0               1                               \n \n***Supply current correction                                                                                                    \nIq              99              50              0.0055                                                          \nFsup1           99              0               Voutmon         1                                               \n*DZsup1         0               802             DZENER2                                                         \n*Dsup1          99              802             DQUIET                                                          \nFsup2           0               50              Voutmon         -1                                              \n*DZsup2         804             0               DZENER2                                                         \n*Dsup2          804             50              DQUIET                                                          \n \n                                                                                                                \n                                                                                                                \n                                                                                                                \n                                                                                                                \n                                                                                                                \n                                                                                                                \n                                                                                                                \n                                                                                                                \n                                                                                                                \n                                                                                                                \n \n***models                                                                                                       \n.model          Rideal          res             T_ABS=-273                                                      \n.model          Rnoise          res             T_ABS=27                                                        \n.model          npn             npn             BF= 384614.384615385                                                            \n.model          dquiet          d                                                                               \n.model          dvnoise         d               KF=6075000                                                      \n.model          dinoise1        d               KF=0.225                                                        \n.model          dinoise2        d               KF=0.225\n.model          dzener          d               BV=43.5423175545689\n.model          dzener2         d               BV=50\n                                                \n.ends                                           \n*$
TEXT 14952 2752 Left 2 ;.tran 20m
TEXT 15888 2744 Left 2 !K1 L1 L2 0.855
TEXT 14816 2848 Left 2 !.ac dec 1000 5k 50k
TEXT 14808 2800 Left 2 ;.step param k list 0.5 0.6 0.9
TEXT 14768 2896 Left 2 ;.step param c5val list 100n 1u
TEXT 14760 2944 Left 2 !.step param r4val list 50 100050
