Version 4
SHEET 1 14772 7332
WIRE 11584 5120 11168 5120
WIRE 11792 5120 11648 5120
WIRE 11904 5120 11792 5120
WIRE 11584 5152 11584 5120
WIRE 11648 5152 11648 5120
WIRE 11168 5184 11168 5120
WIRE 11904 5232 11904 5120
WIRE 11792 5248 11792 5120
WIRE 11168 5328 11168 5264
WIRE 11168 5440 11168 5408
WIRE 11584 5440 11584 5232
WIRE 11648 5440 11648 5232
WIRE 11792 5440 11792 5312
WIRE 11904 5440 11904 5312
FLAG 11648 5440 0
FLAG 11168 5440 0
FLAG 11584 5440 0
FLAG 11904 5440 0
FLAG 11792 5440 0
SYMBOL ind2 11664 5248 R180
WINDOW 0 -33 74 Left 2
WINDOW 3 -50 30 Left 2
SYMATTR InstName L1
SYMATTR Value 10.48m
SYMATTR Type ind
SYMBOL Misc\\signal 11168 5168 R0
WINDOW 123 24 132 Left 2
WINDOW 39 0 0 Left 0
SYMATTR Value2 AC 1m
SYMATTR InstName V3
SYMATTR Value SINE(0 1m 17.2K)
SYMBOL ind2 11568 5136 R0
WINDOW 0 -37 37 Left 2
WINDOW 3 -24 82 Left 2
SYMATTR InstName L2
SYMATTR Value 2.47m
SYMATTR Type ind
SYMBOL res 11888 5216 R0
SYMATTR InstName R1
SYMATTR Value 1Meg
SYMBOL res 11152 5312 R0
SYMATTR InstName R2
SYMATTR Value 50
SYMBOL cap 11776 5248 R0
SYMATTR InstName C1
SYMATTR Value 26.4n
TEXT 10496 5128 Left 2 ;.tran 20m
TEXT 11568 5064 Left 2 !K1 L1 L2 0.87
TEXT 10496 5168 Left 2 !.ac dec 1k 1k 100k
TEXT 10496 5080 Left 2 !.step param k list 0.6 0.8
